10
H 0.000000 -1.420641 1.601473
  C 0.000000 0.670170 0.814819
C,0.000000, -0.670170,0.814819
 C,0.000000 0.786311 -0.699697
C 0.000000 -0.786311 -0.699697
H 0.890109 -1.246599 -1.146101
H -0.890109 -1.246599 -1.146101
H 0.000000 1.420641 1.601473
H -0.890109 1.246599 -1.146101
H 0.890109 1.246599 -1.146101
